@<TRIPOS>MOLECULE
*****
 12 12 0 0 0
SMALL
GASTEIGER

@<TRIPOS>ATOM
      1 C          -5.8696    2.3005    0.0000 C.ar    1  LIG1       -0.0618
      2 C          -5.7973    0.9076   -0.0000 C.ar    1  LIG1       -0.0618
      3 C          -4.6994    3.0596    0.0000 C.ar    1  LIG1       -0.0618
      4 C          -3.4570    2.4257    0.0000 C.ar    1  LIG1       -0.0618
      5 C          -3.3847    1.0328    0.0000 C.ar    1  LIG1       -0.0618
      6 C          -4.5549    0.2737   -0.0000 C.ar    1  LIG1       -0.0618
      7 H          -6.8377    2.7944    0.0000 H       1  LIG1        0.0618
      8 H          -6.7090    0.3162   -0.0000 H       1  LIG1        0.0618
      9 H          -4.7558    4.1449    0.0000 H       1  LIG1        0.0618
     10 H          -2.5452    3.0171    0.0000 H       1  LIG1        0.0618
     11 H          -2.4166    0.5389    0.0000 H       1  LIG1        0.0618
     12 H          -4.4985   -0.8116   -0.0000 H       1  LIG1        0.0618
@<TRIPOS>BOND
     1     1     2   ar
     2     1     3   ar
     3     3     4   ar
     4     4     5   ar
     5     5     6   ar
     6     6     2   ar
     7     1     7    1
     8     2     8    1
     9     3     9    1
    10     4    10    1
    11     5    11    1
    12     6    12    1
