@<TRIPOS>MOLECULE
etano
 8 7 0 0 0
SMALL
GASTEIGER

@<TRIPOS>ATOM
      1 C          -2.1218    0.8778    0.0000 C.3     1  LIG1       -0.0681
      2 C          -0.6101    0.8472    0.0000 C.3     1  LIG1       -0.0681
      3 H          -2.4867    1.8483   -0.3494 H       1  LIG1        0.0227
      4 H          -2.5097    0.7067    1.0086 H       1  LIG1        0.0227
      5 H          -2.5220    0.1017   -0.6592 H       1  LIG1        0.0227
      6 H          -0.2099    1.6233    0.6592 H       1  LIG1        0.0227
      7 H          -0.2222    1.0183   -1.0086 H       1  LIG1        0.0227
      8 H          -0.2452   -0.1232    0.3494 H       1  LIG1        0.0227
@<TRIPOS>BOND
     1     1     2    1
     2     1     3    1
     3     1     4    1
     4     1     5    1
     5     2     6    1
     6     2     7    1
     7     2     8    1
