@<TRIPOS>MOLECULE
*****
 20 20 0 0 0
SMALL
GASTEIGER

@<TRIPOS>ATOM
      1 C          -7.6142    2.9991   -0.1353 C.3     1  LIG1       -0.0314
      2 C          -7.7638    1.5145    0.0067 C.2     1  LIG1       -0.0877
      3 C          -6.2274    3.4976    0.2649 C.3     1  LIG1       -0.0119
      4 H          -8.3643    3.4999    0.4875 H       1  LIG1        0.0308
      5 H          -7.8249    3.2731   -1.1756 H       1  LIG1        0.0308
      6 C          -5.1101    2.6047   -0.2835 C.3     1  LIG1        0.1078
      7 H          -6.1508    3.5426    1.3600 H       1  LIG1        0.0304
      8 H          -6.0871    4.5299   -0.0791 H       1  LIG1        0.0304
      9 C          -5.2966    1.1460    0.1741 C.3     1  LIG1        0.0026
     10 C          -6.7239    0.6834    0.1634 C.2     1  LIG1       -0.0845
     11 H          -4.8876    1.0114    1.1829 H       1  LIG1        0.0343
     12 H          -4.7111    0.4880   -0.4787 H       1  LIG1        0.0343
     13 H          -6.9015   -0.3833    0.2802 H       1  LIG1        0.0570
     14 H          -8.7742    1.1119   -0.0144 H       1  LIG1        0.0569
     15 O          -3.8696    3.1458    0.2188 O.3     1  LIG1       -0.4503
     16 H          -5.1183    2.6673   -1.3804 H       1  LIG1        0.0737
     17 C          -2.7283    2.7129   -0.3847 C.2     1  LIG1        0.4116
     18 C          -1.5407    3.3448    0.1635 C.1     1  LIG1        0.1822
     19 O          -2.6660    1.8914   -1.2896 O.2     1  LIG1       -0.2328
     20 N          -0.5987    3.8620    0.6108 N.1     1  LIG1       -0.1842
@<TRIPOS>BOND
     1     1     2    1
     2     1     3    1
     3     1     4    1
     4     1     5    1
     5     3     6    1
     6     3     7    1
     7     3     8    1
     8     6     9    1
     9     9    10    1
    10     9    11    1
    11     9    12    1
    12    10     2    2
    13    10    13    1
    14     2    14    1
    15     6    15    1
    16     6    16    1
    17    15    17    1
    18    17    18    1
    19    17    19    2
    20    18    20    3
